<?xml version="1.0" encoding="UTF-8"?>

<!-- generated on 05/11/20 07:33:42 by Eclipse SUMO jtrrouter Version 1.3.1
<configuration xmlns:xsi="http://www.w3.org/2001/XMLSchema-instance" xsi:noNamespaceSchemaLocation="http://sumo.dlr.de/xsd/jtrrouterConfiguration.xsd">

    <input>
        <net-file value=".\cross.net.xml"/>
        <route-files value=".\cross.flo.xml"/>
    </input>

    <output>
        <output-file value=".\cross.rou.xml"/>
    </output>

    <processing>
        <no-internal-links value="true"/>
        <turn-defaults value="25,50,25"/>
        <accept-all-destinations value="true"/>
        <allow-loops value="true"/>
    </processing>

</configuration>
-->

<routes xmlns:xsi="http://www.w3.org/2001/XMLSchema-instance" xsi:noNamespaceSchemaLocation="http://sumo.dlr.de/xsd/routes_file.xsd">
    <vehicle id="0.0" depart="0.00">
        <route edges="51o 51i 51o 1i 2o 2i 1o 1i 2o 2i 1o 51i 51o 1i 2o 2i 1o 51i 51o 1i 2o 52i 52o 2i 1o 1i 2o 2i 1o 1i 2o 52i 52o 52i 52o 52i 52o 52i 52o 2i 1o 51i 51o 1i 2o 52i 52o 2i 1o 51i 51o 51i 51o 51i 51o 51i 51o 1i 2o 52i 52o 2i 1o 51i 51o 1i 2o 2i 1o 51i 51o 1i 2o 52i 52o 2i 1o 51i 51o 51i 51o 1i 2o 2i 1o 1i 2o 2i 1o 1i 2o 52i 52o 2i 1o 51i"/>
    </vehicle>
    <vehicle id="1.0" depart="0.00">
        <route edges="2o 2i 1o 51i 51o 51i 51o 51i 51o 51i 51o 1i 2o 2i 1o 51i 51o 51i 51o 51i 51o 51i 51o 51i 51o 1i 2o 52i 52o 52i 52o 2i 1o 51i 51o 1i 2o 52i 52o 52i 52o 52i 52o 52i 52o 52i 52o 52i 52o 52i 52o 2i 1o 51i 51o 51i 51o 1i 2o 2i 1o 51i 51o 51i 51o 1i 2o 2i 1o 1i 2o 2i 1o 51i 51o 1i 2o 52i 52o 2i 1o 51i 51o 51i 51o 51i 51o 51i 51o 1i 2o 52i 52o 52i 52o 2i"/>
    </vehicle>
    <vehicle id="10.0" depart="0.00">
        <route edges="4o 54i 54o 4i 3o 53i 53o 53i 53o 3i 4o 4i 3o 3i 4o 4i 3o 53i 53o 53i 53o 3i 4o 4i 3o 53i 53o 3i 4o 4i 3o 3i 4o 4i 3o 3i 4o 4i 3o 53i 53o 3i 4o 54i 54o 54i 54o 54i 54o 4i 3o 3i 4o 54i 54o 54i 54o 4i 3o 53i 53o 53i 53o 53i 53o 53i 53o 3i 4o 54i 54o 4i 3o 53i 53o 53i 53o 53i 53o 53i 53o 53i 53o 3i 4o 4i 3o 3i 4o 54i 54o 4i 3o 53i 53o 53i"/>
    </vehicle>
    <vehicle id="100.0" depart="0.00">
        <route edges="4i 3o 53i 53o 53i 53o 3i 4o 4i 3o 3i 4o 4i 3o 3i 4o 54i 54o 54i 54o 4i 3o 3i 4o 54i 54o 54i 54o 4i 3o 53i 53o 53i 53o 53i 53o 3i 4o 4i 3o 53i 53o 3i 4o 54i 54o 54i 54o 4i 3o 53i 53o 3i 4o 4i 3o 3i 4o 54i 54o 4i 3o 53i 53o 3i 4o 4i 3o 3i 4o 4i 3o 3i 4o 54i 54o 54i 54o 4i 3o 53i 53o 3i 4o 4i 3o 53i 53o 3i 4o 4i 3o 3i 4o 4i 3o"/>
    </vehicle>
    <vehicle id="1000.0" depart="0.00">
        <route edges="3o 3i 4o 54i 54o 54i 54o 4i 3o 3i 4o 54i 54o 4i 3o 3i 4o 4i 3o 53i 53o 53i 53o 53i 53o 3i 4o 4i 3o 3i 4o 4i 3o 3i 4o 4i 3o 3i 4o 4i 3o 53i 53o 53i 53o 53i 53o 3i 4o 4i 3o 53i 53o 53i 53o 53i 53o 53i 53o 3i 4o 4i 3o 53i 53o 53i 53o 3i 4o 54i 54o 54i 54o 4i 3o 53i 53o 53i 53o 3i 4o 4i 3o 53i 53o 53i 53o 53i 53o 53i 53o 53i 53o 53i 53o 53i"/>
    </vehicle>
    <vehicle id="1001.0" depart="0.00">
        <route edges="51o 51i 51o 51i 51o 51i 51o 51i 51o 51i 51o 51i 51o 51i 51o 1i 2o 52i 52o 52i 52o 52i 52o 2i 1o 51i 51o 51i 51o 1i 2o 52i 52o 2i 1o 51i 51o 1i 2o 52i 52o 52i 52o 2i 1o 1i 2o 2i 1o 51i 51o 1i 2o 2i 1o 51i 51o 51i 51o 51i 51o 1i 2o 52i 52o 2i 1o 1i 2o 2i 1o 1i 2o 2i 1o 1i 2o 52i 52o 2i 1o 51i 51o 51i 51o 51i 51o 51i 51o 1i 2o 2i 1o 1i 2o 52i"/>
    </vehicle>
    <vehicle id="1002.0" depart="0.00">
        <route edges="3o 3i 4o 54i 54o 54i 54o 54i 54o 54i 54o 54i 54o 54i 54o 54i 54o 54i 54o 54i 54o 4i 3o 3i 4o 54i 54o 4i 3o 3i 4o 54i 54o 54i 54o 54i 54o 54i 54o 4i 3o 3i 4o 4i 3o 3i 4o 54i 54o 54i 54o 54i 54o 4i 3o 3i 4o 4i 3o 53i 53o 3i 4o 4i 3o 53i 53o 53i 53o 3i 4o 4i 3o 53i 53o 53i 53o 3i 4o 54i 54o 54i 54o 54i 54o 4i 3o 3i 4o 54i 54o 54i 54o 54i 54o 54i"/>
    </vehicle>
    <vehicle id="1003.0" depart="0.00">
        <route edges="1o 51i 51o 1i 2o 52i 52o 2i 1o 51i 51o 1i 2o 52i 52o 52i 52o 52i 52o 52i 52o 2i 1o 51i 51o 51i 51o 51i 51o 51i 51o 1i 2o 52i 52o 52i 52o 2i 1o 51i 51o 1i 2o 52i 52o 52i 52o 52i 52o 2i 1o 51i 51o 51i 51o 1i 2o 2i 1o 51i 51o 1i 2o 52i 52o 52i 52o 52i 52o 2i 1o 1i 2o 52i 52o 2i 1o 51i 51o 51i 51o 1i 2o 2i 1o 51i 51o 51i 51o 1i 2o 52i 52o 2i 1o 1i"/>
    </vehicle>
    <vehicle id="1004.0" depart="0.00">
        <route edges="4i 3o 53i 53o 53i 53o 53i 53o 53i 53o 3i 4o 4i 3o 53i 53o 3i 4o 54i 54o 54i 54o 4i 3o 53i 53o 53i 53o 53i 53o 53i 53o 3i 4o 54i 54o 4i 3o 3i 4o 54i 54o 4i 3o 3i 4o 4i 3o 53i 53o 3i 4o 4i 3o 53i 53o 53i 53o 53i 53o 3i 4o 54i 54o 54i 54o 54i 54o 54i 54o 4i 3o 3i 4o 4i 3o 53i 53o 53i 53o 3i 4o 4i 3o 3i 4o 54i 54o 4i 3o 3i 4o 54i 54o 54i 54o"/>
    </vehicle>
    <vehicle id="1005.0" depart="0.00">
        <route edges="53o 3i 4o 4i 3o 53i 53o 53i 53o 53i 53o 53i 53o 53i 53o 3i 4o 4i 3o 53i 53o 53i 53o 53i 53o 3i 4o 4i 3o 3i 4o 54i 54o 4i 3o 3i 4o 54i 54o 4i 3o 53i 53o 53i 53o 53i 53o 3i 4o 4i 3o 53i 53o 53i 53o 53i 53o 53i 53o 3i 4o 54i 54o 4i 3o 53i 53o 3i 4o 4i 3o 53i 53o 53i 53o 3i 4o 4i 3o 53i 53o 3i 4o 4i 3o 53i 53o 53i 53o 53i 53o 53i 53o 3i 4o 4i"/>
    </vehicle>
    <vehicle id="1006.0" depart="0.00">
        <route edges="51o 1i 2o 2i 1o 51i 51o 1i 2o 2i 1o 1i 2o 2i 1o 51i 51o 51i 51o 1i 2o 2i 1o 1i 2o 2i 1o 51i 51o 51i 51o 1i 2o 2i 1o 51i 51o 1i 2o 52i 52o 2i 1o 1i 2o 2i 1o 51i 51o 1i 2o 52i 52o 2i 1o 51i 51o 51i 51o 51i 51o 51i 51o 51i 51o 51i 51o 1i 2o 52i 52o 52i 52o 52i 52o 2i 1o 1i 2o 2i 1o 51i 51o 51i 51o 51i 51o 51i 51o 1i 2o 2i 1o 1i 2o 52i"/>
    </vehicle>
    <vehicle id="1007.0" depart="0.00">
        <route edges="3o 3i 4o 4i 3o 53i 53o 53i 53o 53i 53o 53i 53o 53i 53o 53i 53o 3i 4o 54i 54o 4i 3o 3i 4o 4i 3o 53i 53o 53i 53o 3i 4o 54i 54o 4i 3o 3i 4o 54i 54o 54i 54o 54i 54o 4i 3o 3i 4o 4i 3o 3i 4o 54i 54o 54i 54o 54i 54o 4i 3o 3i 4o 54i 54o 4i 3o 3i 4o 4i 3o 3i 4o 4i 3o 53i 53o 53i 53o 3i 4o 4i 3o 53i 53o 3i 4o 4i 3o 3i 4o 4i 3o 3i 4o 4i"/>
    </vehicle>
    <vehicle id="1008.0" depart="0.00">
        <route edges="51o 1i 2o 2i 1o 1i 2o 52i 52o 52i 52o 2i 1o 1i 2o 2i 1o 51i 51o 1i 2o 52i 52o 52i 52o 52i 52o 2i 1o 51i 51o 51i 51o 51i 51o 51i 51o 1i 2o 2i 1o 1i 2o 52i 52o 2i 1o 51i 51o 1i 2o 52i 52o 2i 1o 51i 51o 1i 2o 2i 1o 1i 2o 52i 52o 2i 1o 51i 51o 51i 51o 1i 2o 2i 1o 1i 2o 2i 1o 1i 2o 2i 1o 51i 51o 51i 51o 1i 2o 2i 1o 51i 51o 51i 51o 1i"/>
    </vehicle>
    <vehicle id="1009.0" depart="0.00">
        <route edges="1o 1i 2o 2i 1o 1i 2o 2i 1o 51i 51o 1i 2o 52i 52o 2i 1o 51i 51o 51i 51o 51i 51o 51i 51o 1i 2o 52i 52o 52i 52o 52i 52o 52i 52o 52i 52o 2i 1o 1i 2o 2i 1o 51i 51o 51i 51o 51i 51o 51i 51o 1i 2o 2i 1o 51i 51o 1i 2o 52i 52o 52i 52o 52i 52o 52i 52o 2i 1o 51i 51o 1i 2o 2i 1o 51i 51o 1i 2o 2i 1o 1i 2o 52i 52o 52i 52o 52i 52o 2i 1o 1i 2o 2i 1o 51i"/>
    </vehicle>
    <vehicle id="101.0" depart="0.00">
        <route edges="2i 1o 51i 51o 51i 51o 51i 51o 1i 2o 52i 52o 2i 1o 1i 2o 52i 52o 2i 1o 51i 51o 51i 51o 1i 2o 2i 1o 51i 51o 1i 2o 2i 1o 51i 51o 51i 51o 1i 2o 52i 52o 2i 1o 51i 51o 1i 2o 52i 52o 52i 52o 2i 1o 51i 51o 1i 2o 52i 52o 2i 1o 51i 51o 51i 51o 51i 51o 1i 2o 2i 1o 51i 51o 51i 51o 1i 2o 52i 52o 52i 52o 52i 52o 52i 52o 52i 52o 2i 1o 1i 2o 2i 1o 1i 2o"/>
    </vehicle>
    <vehicle id="1010.0" depart="0.00">
        <route edges="1i 2o 52i 52o 52i 52o 2i 1o 1i 2o 2i 1o 51i 51o 1i 2o 2i 1o 1i 2o 2i 1o 1i 2o 2i 1o 1i 2o 52i 52o 52i 52o 2i 1o 51i 51o 1i 2o 2i 1o 1i 2o 52i 52o 2i 1o 51i 51o 1i 2o 2i 1o 1i 2o 52i 52o 2i 1o 51i 51o 1i 2o 2i 1o 1i 2o 52i 52o 2i 1o 51i 51o 51i 51o 51i 51o 51i 51o 1i 2o 52i 52o 52i 52o 52i 52o 52i 52o 52i 52o 2i 1o 51i 51o 51i 51o"/>
    </vehicle>
    <vehicle id="1011.0" depart="0.00">
        <route edges="4i 3o 53i 53o 53i 53o 53i 53o 3i 4o 4i 3o 3i 4o 54i 54o 4i 3o 53i 53o 53i 53o 3i 4o 4i 3o 53i 53o 53i 53o 3i 4o 54i 54o 4i 3o 53i 53o 3i 4o 54i 54o 4i 3o 53i 53o 3i 4o 4i 3o 3i 4o 54i 54o 4i 3o 3i 4o 54i 54o 4i 3o 53i 53o 3i 4o 4i 3o 3i 4o 4i 3o 3i 4o 54i 54o 54i 54o 4i 3o 3i 4o 54i 54o 4i 3o 3i 4o 4i 3o 53i 53o 53i 53o 53i 53o"/>
    </vehicle>
    <vehicle id="1012.0" depart="0.00">
        <route edges="2i 1o 1i 2o 2i 1o 51i 51o 51i 51o 51i 51o 51i 51o 51i 51o 1i 2o 2i 1o 51i 51o 51i 51o 51i 51o 1i 2o 52i 52o 52i 52o 2i 1o 1i 2o 52i 52o 2i 1o 1i 2o 52i 52o 52i 52o 2i 1o 51i 51o 51i 51o 1i 2o 52i 52o 52i 52o 52i 52o 52i 52o 52i 52o 2i 1o 1i 2o 2i 1o 51i 51o 1i 2o 2i 1o 51i 51o 1i 2o 52i 52o 52i 52o 2i 1o 1i 2o 2i 1o 51i 51o 1i 2o 52i 52o"/>
    </vehicle>
    <vehicle id="1013.0" depart="0.00">
        <route edges="54o 4i 3o 53i 53o 3i 4o 54i 54o 54i 54o 4i 3o 3i 4o 4i 3o 3i 4o 54i 54o 54i 54o 4i 3o 3i 4o 4i 3o 53i 53o 53i 53o 53i 53o 3i 4o 4i 3o 3i 4o 54i 54o 54i 54o 4i 3o 3i 4o 4i 3o 3i 4o 54i 54o 54i 54o 4i 3o 53i 53o 53i 53o 53i 53o 53i 53o 3i 4o 54i 54o 4i 3o 3i 4o 54i 54o 54i 54o 4i 3o 3i 4o 54i 54o 54i 54o 4i 3o 3i 4o 54i 54o 4i 3o 3i"/>
    </vehicle>
    <vehicle id="1014.0" depart="0.00">
        <route edges="1o 1i 2o 52i 52o 52i 52o 52i 52o 52i 52o 2i 1o 1i 2o 52i 52o 2i 1o 51i 51o 1i 2o 52i 52o 52i 52o 2i 1o 1i 2o 52i 52o 52i 52o 52i 52o 52i 52o 52i 52o 52i 52o 2i 1o 1i 2o 52i 52o 52i 52o 52i 52o 2i 1o 1i 2o 52i 52o 2i 1o 51i 51o 51i 51o 51i 51o 51i 51o 1i 2o 2i 1o 51i 51o 1i 2o 2i 1o 1i 2o 52i 52o 52i 52o 2i 1o 51i 51o 51i 51o 51i 51o 1i 2o 2i"/>
    </vehicle>
    <vehicle id="1015.0" depart="0.00">
        <route edges="1i 2o 2i 1o 51i 51o 1i 2o 2i 1o 1i 2o 2i 1o 51i 51o 51i 51o 1i 2o 52i 52o 52i 52o 2i 1o 51i 51o 51i 51o 1i 2o 52i 52o 52i 52o 2i 1o 51i 51o 1i 2o 52i 52o 52i 52o 2i 1o 1i 2o 52i 52o 2i 1o 1i 2o 2i 1o 51i 51o 51i 51o 51i 51o 51i 51o 51i 51o 1i 2o 2i 1o 1i 2o 2i 1o 51i 51o 1i 2o 2i 1o 51i 51o 1i 2o 2i 1o 1i 2o 2i 1o 51i 51o 51i 51o"/>
    </vehicle>
    <vehicle id="1016.0" depart="0.00">
        <route edges="1o 51i 51o 51i 51o 1i 2o 2i 1o 1i 2o 52i 52o 2i 1o 1i 2o 2i 1o 51i 51o 1i 2o 2i 1o 51i 51o 51i 51o 1i 2o 52i 52o 2i 1o 51i 51o 51i 51o 1i 2o 52i 52o 52i 52o 2i 1o 51i 51o 51i 51o 1i 2o 52i 52o 2i 1o 51i 51o 51i 51o 51i 51o 1i 2o 52i 52o 2i 1o 1i 2o 2i 1o 1i 2o 2i 1o 51i 51o 1i 2o 2i 1o 51i 51o 1i 2o 2i 1o 51i 51o 1i 2o 2i 1o 1i"/>
    </vehicle>
    <vehicle id="1017.0" depart="0.00">
        <route edges="53o 53i 53o 53i 53o 53i 53o 53i 53o 3i 4o 54i 54o 54i 54o 4i 3o 3i 4o 4i 3o 3i 4o 54i 54o 54i 54o 4i 3o 53i 53o 3i 4o 4i 3o 53i 53o 53i 53o 53i 53o 3i 4o 54i 54o 54i 54o 54i 54o 4i 3o 53i 53o 53i 53o 3i 4o 4i 3o 3i 4o 4i 3o 3i 4o 4i 3o 3i 4o 54i 54o 54i 54o 4i 3o 3i 4o 54i 54o 54i 54o 4i 3o 3i 4o 4i 3o 3i 4o 54i 54o 4i 3o 53i 53o 3i"/>
    </vehicle>
    <vehicle id="1018.0" depart="0.00">
        <route edges="4o 4i 3o 53i 53o 53i 53o 3i 4o 54i 54o 4i 3o 53i 53o 3i 4o 4i 3o 53i 53o 3i 4o 4i 3o 3i 4o 4i 3o 3i 4o 54i 54o 4i 3o 53i 53o 3i 4o 54i 54o 54i 54o 54i 54o 4i 3o 3i 4o 54i 54o 4i 3o 3i 4o 4i 3o 3i 4o 54i 54o 4i 3o 53i 53o 53i 53o 3i 4o 4i 3o 53i 53o 3i 4o 4i 3o 3i 4o 4i 3o 3i 4o 54i 54o 4i 3o 3i 4o 54i 54o 4i 3o 3i 4o 54i"/>
    </vehicle>
    <vehicle id="1019.0" depart="0.00">
        <route edges="2o 52i 52o 2i 1o 1i 2o 2i 1o 51i 51o 51i 51o 1i 2o 2i 1o 1i 2o 2i 1o 1i 2o 2i 1o 51i 51o 51i 51o 51i 51o 1i 2o 52i 52o 2i 1o 51i 51o 1i 2o 2i 1o 51i 51o 1i 2o 2i 1o 1i 2o 2i 1o 1i 2o 52i 52o 2i 1o 1i 2o 52i 52o 52i 52o 2i 1o 51i 51o 1i 2o 2i 1o 51i 51o 51i 51o 51i 51o 1i 2o 52i 52o 2i 1o 51i 51o 1i 2o 52i 52o 52i 52o 52i 52o 2i"/>
    </vehicle>
    <vehicle id="102.0" depart="0.00">
        <route edges="54o 4i 3o 53i 53o 3i 4o 54i 54o 54i 54o 4i 3o 53i 53o 3i 4o 4i 3o 53i 53o 3i 4o 4i 3o 53i 53o 53i 53o 53i 53o 3i 4o 4i 3o 53i 53o 53i 53o 3i 4o 54i 54o 54i 54o 54i 54o 4i 3o 3i 4o 4i 3o 3i 4o 4i 3o 53i 53o 3i 4o 54i 54o 4i 3o 3i 4o 54i 54o 54i 54o 54i 54o 54i 54o 54i 54o 4i 3o 3i 4o 54i 54o 54i 54o 54i 54o 54i 54o 4i 3o 53i 53o 3i 4o 54i"/>
    </vehicle>
    <vehicle id="1020.0" depart="0.00">
        <route edges="54o 4i 3o 3i 4o 4i 3o 3i 4o 4i 3o 3i 4o 4i 3o 53i 53o 3i 4o 4i 3o 3i 4o 4i 3o 3i 4o 54i 54o 54i 54o 4i 3o 3i 4o 54i 54o 54i 54o 4i 3o 53i 53o 53i 53o 53i 53o 3i 4o 54i 54o 54i 54o 54i 54o 54i 54o 4i 3o 53i 53o 53i 53o 3i 4o 4i 3o 53i 53o 53i 53o 53i 53o 53i 53o 53i 53o 53i 53o 3i 4o 4i 3o 53i 53o 53i 53o 3i 4o 54i 54o 54i 54o 4i 3o 3i"/>
    </vehicle>
    <vehicle id="1021.0" depart="0.00">
        <route edges="53o 53i 53o 53i 53o 3i 4o 54i 54o 54i 54o 54i 54o 4i 3o 3i 4o 54i 54o 54i 54o 4i 3o 53i 53o 3i 4o 54i 54o 4i 3o 3i 4o 4i 3o 3i 4o 4i 3o 53i 53o 53i 53o 3i 4o 4i 3o 3i 4o 4i 3o 3i 4o 4i 3o 53i 53o 53i 53o 3i 4o 4i 3o 3i 4o 4i 3o 3i 4o 54i 54o 4i 3o 3i 4o 54i 54o 4i 3o 3i 4o 4i 3o 3i 4o 4i 3o 53i 53o 3i 4o 54i 54o 54i 54o 4i"/>
    </vehicle>
    <vehicle id="1022.0" depart="0.00">
        <route edges="2i 1o 1i 2o 52i 52o 52i 52o 2i 1o 1i 2o 52i 52o 52i 52o 2i 1o 1i 2o 2i 1o 1i 2o 52i 52o 52i 52o 2i 1o 51i 51o 51i 51o 51i 51o 51i 51o 1i 2o 2i 1o 51i 51o 1i 2o 52i 52o 52i 52o 2i 1o 51i 51o 1i 2o 2i 1o 51i 51o 51i 51o 51i 51o 51i 51o 51i 51o 51i 51o 51i 51o 51i 51o 1i 2o 52i 52o 2i 1o 1i 2o 52i 52o 2i 1o 51i 51o 1i 2o 52i 52o 2i 1o 51i 51o"/>
    </vehicle>
    <vehicle id="1023.0" depart="0.00">
        <route edges="4o 4i 3o 53i 53o 3i 4o 54i 54o 4i 3o 3i 4o 4i 3o 53i 53o 53i 53o 53i 53o 3i 4o 4i 3o 53i 53o 53i 53o 53i 53o 3i 4o 4i 3o 53i 53o 3i 4o 4i 3o 53i 53o 53i 53o 3i 4o 54i 54o 4i 3o 53i 53o 53i 53o 3i 4o 4i 3o 53i 53o 3i 4o 54i 54o 54i 54o 4i 3o 53i 53o 53i 53o 3i 4o 54i 54o 4i 3o 3i 4o 54i 54o 54i 54o 54i 54o 4i 3o 3i 4o 54i 54o 54i 54o 4i"/>
    </vehicle>
    <vehicle id="1024.0" depart="0.00">
        <route edges="51o 1i 2o 52i 52o 52i 52o 2i 1o 51i 51o 51i 51o 1i 2o 52i 52o 2i 1o 51i 51o 51i 51o 1i 2o 52i 52o 2i 1o 1i 2o 52i 52o 52i 52o 52i 52o 2i 1o 51i 51o 51i 51o 51i 51o 51i 51o 1i 2o 52i 52o 52i 52o 2i 1o 1i 2o 52i 52o 52i 52o 52i 52o 2i 1o 51i 51o 51i 51o 51i 51o 1i 2o 52i 52o 52i 52o 2i 1o 51i 51o 1i 2o 52i 52o 52i 52o 2i 1o 1i 2o 52i 52o 2i 1o 51i"/>
    </vehicle>
    <vehicle id="1025.0" depart="0.00">
        <route edges="3i 4o 54i 54o 54i 54o 4i 3o 53i 53o 53i 53o 3i 4o 54i 54o 4i 3o 53i 53o 53i 53o 53i 53o 3i 4o 4i 3o 53i 53o 3i 4o 4i 3o 53i 53o 3i 4o 4i 3o 53i 53o 53i 53o 53i 53o 53i 53o 3i 4o 4i 3o 3i 4o 54i 54o 4i 3o 53i 53o 3i 4o 4i 3o 53i 53o 3i 4o 4i 3o 3i 4o 4i 3o 53i 53o 53i 53o 3i 4o 54i 54o 4i 3o 53i 53o 3i 4o 4i 3o 3i 4o 54i 54o 4i 3o"/>
    </vehicle>
    <vehicle id="1026.0" depart="0.00">
        <route edges="1o 1i 2o 2i 1o 1i 2o 2i 1o 51i 51o 1i 2o 52i 52o 2i 1o 51i 51o 1i 2o 52i 52o 2i 1o 1i 2o 2i 1o 1i 2o 52i 52o 2i 1o 1i 2o 2i 1o 51i 51o 1i 2o 52i 52o 52i 52o 52i 52o 2i 1o 1i 2o 2i 1o 51i 51o 51i 51o 1i 2o 2i 1o 51i 51o 51i 51o 51i 51o 1i 2o 2i 1o 51i 51o 1i 2o 52i 52o 2i 1o 1i 2o 2i 1o 51i 51o 1i 2o 2i 1o 51i 51o 51i 51o 1i"/>
    </vehicle>
    <vehicle id="1027.0" depart="0.00">
        <route edges="3i 4o 4i 3o 3i 4o 54i 54o 4i 3o 3i 4o 54i 54o 54i 54o 54i 54o 54i 54o 4i 3o 3i 4o 4i 3o 53i 53o 53i 53o 3i 4o 54i 54o 4i 3o 53i 53o 53i 53o 3i 4o 4i 3o 53i 53o 53i 53o 3i 4o 4i 3o 3i 4o 54i 54o 54i 54o 4i 3o 3i 4o 54i 54o 54i 54o 4i 3o 53i 53o 53i 53o 53i 53o 3i 4o 54i 54o 4i 3o 3i 4o 4i 3o 53i 53o 3i 4o 54i 54o 54i 54o 54i 54o 4i 3o"/>
    </vehicle>
    <vehicle id="1028.0" depart="0.00">
        <route edges="4o 54i 54o 54i 54o 54i 54o 4i 3o 3i 4o 54i 54o 54i 54o 54i 54o 54i 54o 54i 54o 54i 54o 54i 54o 4i 3o 3i 4o 4i 3o 53i 53o 3i 4o 4i 3o 53i 53o 3i 4o 54i 54o 54i 54o 54i 54o 4i 3o 53i 53o 53i 53o 3i 4o 54i 54o 54i 54o 54i 54o 4i 3o 3i 4o 54i 54o 54i 54o 4i 3o 3i 4o 4i 3o 3i 4o 54i 54o 4i 3o 53i 53o 53i 53o 53i 53o 53i 53o 53i 53o 53i 53o 53i 53o 53i"/>
    </vehicle>
    <vehicle id="1029.0" depart="0.00">
        <route edges="51o 51i 51o 1i 2o 52i 52o 2i 1o 51i 51o 51i 51o 1i 2o 52i 52o 52i 52o 52i 52o 2i 1o 1i 2o 2i 1o 51i 51o 51i 51o 51i 51o 51i 51o 1i 2o 52i 52o 52i 52o 2i 1o 1i 2o 2i 1o 51i 51o 51i 51o 51i 51o 1i 2o 2i 1o 51i 51o 51i 51o 1i 2o 52i 52o 2i 1o 1i 2o 52i 52o 2i 1o 1i 2o 52i 52o 52i 52o 52i 52o 2i 1o 1i 2o 2i 1o 1i 2o 52i 52o 2i 1o 51i 51o 1i"/>
    </vehicle>
    <vehicle id="103.0" depart="0.00">
        <route edges="52o 2i 1o 51i 51o 51i 51o 1i 2o 2i 1o 51i 51o 51i 51o 51i 51o 51i 51o 1i 2o 52i 52o 52i 52o 52i 52o 52i 52o 52i 52o 52i 52o 52i 52o 2i 1o 1i 2o 2i 1o 51i 51o 1i 2o 2i 1o 1i 2o 52i 52o 2i 1o 1i 2o 52i 52o 2i 1o 51i 51o 51i 51o 1i 2o 52i 52o 52i 52o 52i 52o 2i 1o 51i 51o 51i 51o 51i 51o 1i 2o 2i 1o 1i 2o 52i 52o 2i 1o 1i 2o 52i 52o 52i 52o 52i"/>
    </vehicle>
    <vehicle id="1030.0" depart="0.00">
        <route edges="4o 4i 3o 3i 4o 4i 3o 53i 53o 53i 53o 3i 4o 4i 3o 53i 53o 53i 53o 53i 53o 53i 53o 53i 53o 53i 53o 53i 53o 3i 4o 4i 3o 53i 53o 3i 4o 4i 3o 53i 53o 3i 4o 4i 3o 3i 4o 4i 3o 3i 4o 4i 3o 3i 4o 54i 54o 54i 54o 4i 3o 53i 53o 3i 4o 4i 3o 53i 53o 3i 4o 54i 54o 54i 54o 54i 54o 54i 54o 4i 3o 53i 53o 53i 53o 3i 4o 4i 3o 53i 53o 3i 4o 54i 54o 54i"/>
    </vehicle>
    <vehicle id="1031.0" depart="0.00">
        <route edges="54o 54i 54o 54i 54o 54i 54o 54i 54o 54i 54o 54i 54o 4i 3o 53i 53o 53i 53o 3i 4o 54i 54o 4i 3o 3i 4o 54i 54o 54i 54o 54i 54o 54i 54o 54i 54o 54i 54o 4i 3o 53i 53o 53i 53o 53i 53o 53i 53o 3i 4o 4i 3o 53i 53o 53i 53o 3i 4o 4i 3o 3i 4o 4i 3o 53i 53o 3i 4o 4i 3o 3i 4o 54i 54o 4i 3o 3i 4o 54i 54o 54i 54o 4i 3o 53i 53o 53i 53o 53i 53o 3i 4o 54i 54o 54i"/>
    </vehicle>
    <vehicle id="1032.0" depart="0.00">
        <route edges="54o 4i 3o 3i 4o 4i 3o 53i 53o 53i 53o 53i 53o 53i 53o 53i 53o 53i 53o 3i 4o 4i 3o 3i 4o 54i 54o 4i 3o 3i 4o 4i 3o 3i 4o 4i 3o 3i 4o 4i 3o 53i 53o 3i 4o 54i 54o 54i 54o 54i 54o 4i 3o 3i 4o 4i 3o 53i 53o 53i 53o 53i 53o 53i 53o 53i 53o 53i 53o 3i 4o 54i 54o 4i 3o 53i 53o 53i 53o 53i 53o 53i 53o 53i 53o 53i 53o 53i 53o 53i 53o 53i 53o 53i 53o 3i"/>
    </vehicle>
    <vehicle id="1033.0" depart="0.00">
        <route edges="52o 52i 52o 2i 1o 51i 51o 1i 2o 2i 1o 51i 51o 1i 2o 2i 1o 1i 2o 2i 1o 51i 51o 1i 2o 2i 1o 1i 2o 2i 1o 51i 51o 51i 51o 1i 2o 2i 1o 51i 51o 51i 51o 1i 2o 52i 52o 52i 52o 52i 52o 52i 52o 2i 1o 1i 2o 2i 1o 51i 51o 1i 2o 2i 1o 1i 2o 52i 52o 2i 1o 51i 51o 51i 51o 51i 51o 1i 2o 2i 1o 1i 2o 2i 1o 1i 2o 2i 1o 1i 2o 2i 1o 51i 51o 1i"/>
    </vehicle>
    <vehicle id="1034.0" depart="0.00">
        <route edges="52o 2i 1o 51i 51o 51i 51o 1i 2o 52i 52o 2i 1o 1i 2o 52i 52o 2i 1o 1i 2o 2i 1o 51i 51o 51i 51o 1i 2o 2i 1o 51i 51o 51i 51o 51i 51o 51i 51o 51i 51o 1i 2o 52i 52o 52i 52o 52i 52o 2i 1o 51i 51o 1i 2o 52i 52o 52i 52o 2i 1o 1i 2o 2i 1o 1i 2o 52i 52o 52i 52o 52i 52o 52i 52o 52i 52o 52i 52o 52i 52o 2i 1o 1i 2o 52i 52o 52i 52o 2i 1o 1i 2o 2i 1o 1i"/>
    </vehicle>
    <vehicle id="1035.0" depart="0.00">
        <route edges="4o 4i 3o 3i 4o 54i 54o 4i 3o 53i 53o 53i 53o 3i 4o 4i 3o 3i 4o 4i 3o 53i 53o 3i 4o 54i 54o 4i 3o 53i 53o 53i 53o 3i 4o 54i 54o 54i 54o 4i 3o 3i 4o 4i 3o 3i 4o 4i 3o 53i 53o 53i 53o 3i 4o 4i 3o 53i 53o 53i 53o 3i 4o 4i 3o 3i 4o 4i 3o 3i 4o 4i 3o 53i 53o 53i 53o 3i 4o 54i 54o 54i 54o 54i 54o 4i 3o 3i 4o 54i 54o 54i 54o 54i 54o 4i"/>
    </vehicle>
    <vehicle id="1036.0" depart="0.00">
        <route edges="1i 2o 52i 52o 2i 1o 1i 2o 2i 1o 51i 51o 1i 2o 52i 52o 52i 52o 52i 52o 52i 52o 52i 52o 52i 52o 52i 52o 52i 52o 2i 1o 1i 2o 52i 52o 52i 52o 2i 1o 51i 51o 1i 2o 52i 52o 2i 1o 1i 2o 52i 52o 52i 52o 52i 52o 52i 52o 2i 1o 1i 2o 2i 1o 51i 51o 1i 2o 2i 1o 1i 2o 2i 1o 1i 2o 2i 1o 1i 2o 52i 52o 2i 1o 51i 51o 51i 51o 1i 2o 52i 52o 2i 1o 51i 51o"/>
    </vehicle>
    <vehicle id="1037.0" depart="0.00">
        <route edges="1i 2o 52i 52o 2i 1o 51i 51o 1i 2o 2i 1o 51i 51o 1i 2o 52i 52o 2i 1o 1i 2o 2i 1o 51i 51o 1i 2o 2i 1o 51i 51o 51i 51o 1i 2o 2i 1o 51i 51o 1i 2o 2i 1o 1i 2o 2i 1o 1i 2o 52i 52o 2i 1o 1i 2o 52i 52o 52i 52o 52i 52o 52i 52o 52i 52o 52i 52o 2i 1o 51i 51o 1i 2o 2i 1o 1i 2o 2i 1o 1i 2o 2i 1o 51i 51o 1i 2o 2i 1o 51i 51o 51i 51o 51i 51o"/>
    </vehicle>
    <vehicle id="1038.0" depart="0.00">
        <route edges="1o 1i 2o 2i 1o 51i 51o 51i 51o 1i 2o 52i 52o 52i 52o 2i 1o 51i 51o 1i 2o 52i 52o 2i 1o 51i 51o 1i 2o 52i 52o 2i 1o 51i 51o 1i 2o 2i 1o 51i 51o 51i 51o 1i 2o 52i 52o 2i 1o 1i 2o 52i 52o 52i 52o 52i 52o 2i 1o 1i 2o 52i 52o 2i 1o 1i 2o 2i 1o 51i 51o 51i 51o 1i 2o 2i 1o 51i 51o 1i 2o 2i 1o 1i 2o 2i 1o 1i 2o 52i 52o 2i 1o 1i 2o 2i"/>
    </vehicle>
    <vehicle id="1039.0" depart="0.00">
        <route edges="1i 2o 2i 1o 51i 51o 51i 51o 1i 2o 2i 1o 1i 2o 2i 1o 51i 51o 1i 2o 52i 52o 52i 52o 52i 52o 52i 52o 2i 1o 51i 51o 51i 51o 1i 2o 52i 52o 52i 52o 52i 52o 52i 52o 52i 52o 2i 1o 1i 2o 52i 52o 2i 1o 51i 51o 1i 2o 2i 1o 51i 51o 51i 51o 1i 2o 2i 1o 1i 2o 52i 52o 2i 1o 1i 2o 52i 52o 2i 1o 1i 2o 2i 1o 51i 51o 1i 2o 52i 52o 52i 52o 2i 1o 1i 2o"/>
    </vehicle>
    <vehicle id="104.0" depart="0.00">
        <route edges="2i 1o 51i 51o 1i 2o 52i 52o 52i 52o 2i 1o 1i 2o 52i 52o 52i 52o 52i 52o 52i 52o 2i 1o 51i 51o 51i 51o 51i 51o 1i 2o 2i 1o 51i 51o 1i 2o 2i 1o 1i 2o 52i 52o 2i 1o 1i 2o 2i 1o 51i 51o 1i 2o 52i 52o 52i 52o 52i 52o 2i 1o 1i 2o 52i 52o 52i 52o 52i 52o 2i 1o 1i 2o 52i 52o 52i 52o 52i 52o 2i 1o 51i 51o 1i 2o 2i 1o 1i 2o 52i 52o 52i 52o 2i 1o"/>
    </vehicle>
    <vehicle id="1040.0" depart="0.00">
        <route edges="3o 3i 4o 54i 54o 54i 54o 4i 3o 53i 53o 53i 53o 3i 4o 4i 3o 53i 53o 53i 53o 53i 53o 3i 4o 54i 54o 54i 54o 54i 54o 54i 54o 4i 3o 53i 53o 53i 53o 53i 53o 53i 53o 53i 53o 53i 53o 53i 53o 3i 4o 4i 3o 53i 53o 3i 4o 54i 54o 54i 54o 54i 54o 4i 3o 53i 53o 3i 4o 4i 3o 3i 4o 54i 54o 54i 54o 54i 54o 4i 3o 53i 53o 3i 4o 54i 54o 54i 54o 4i 3o 53i 53o 53i 53o 3i"/>
    </vehicle>
    <vehicle id="1041.0" depart="0.00">
        <route edges="4o 4i 3o 53i 53o 53i 53o 53i 53o 53i 53o 3i 4o 4i 3o 3i 4o 4i 3o 3i 4o 54i 54o 4i 3o 3i 4o 54i 54o 4i 3o 3i 4o 4i 3o 3i 4o 54i 54o 54i 54o 4i 3o 3i 4o 54i 54o 54i 54o 4i 3o 3i 4o 54i 54o 4i 3o 53i 53o 53i 53o 53i 53o 53i 53o 53i 53o 53i 53o 3i 4o 4i 3o 3i 4o 54i 54o 4i 3o 53i 53o 53i 53o 3i 4o 54i 54o 54i 54o 54i 54o 4i 3o 53i 53o 3i"/>
    </vehicle>
    <vehicle id="1042.0" depart="0.00">
        <route edges="2o 52i 52o 52i 52o 2i 1o 51i 51o 51i 51o 51i 51o 51i 51o 51i 51o 51i 51o 51i 51o 1i 2o 2i 1o 1i 2o 52i 52o 52i 52o 2i 1o 51i 51o 1i 2o 52i 52o 52i 52o 2i 1o 1i 2o 2i 1o 51i 51o 51i 51o 1i 2o 52i 52o 52i 52o 2i 1o 1i 2o 2i 1o 51i 51o 51i 51o 1i 2o 52i 52o 52i 52o 52i 52o 2i 1o 1i 2o 52i 52o 52i 52o 2i 1o 1i 2o 52i 52o 52i 52o 52i 52o 2i 1o 1i"/>
    </vehicle>
    <vehicle id="1043.0" depart="0.00">
        <route edges="51o 51i 51o 51i 51o 51i 51o 1i 2o 2i 1o 51i 51o 51i 51o 1i 2o 2i 1o 1i 2o 52i 52o 2i 1o 1i 2o 52i 52o 2i 1o 1i 2o 52i 52o 2i 1o 51i 51o 51i 51o 51i 51o 1i 2o 2i 1o 1i 2o 52i 52o 2i 1o 1i 2o 2i 1o 1i 2o 52i 52o 2i 1o 51i 51o 1i 2o 52i 52o 2i 1o 51i 51o 51i 51o 1i 2o 52i 52o 52i 52o 2i 1o 51i 51o 1i 2o 2i 1o 51i 51o 1i 2o 52i 52o 52i"/>
    </vehicle>
    <vehicle id="1044.0" depart="0.00">
        <route edges="2i 1o 51i 51o 1i 2o 52i 52o 2i 1o 51i 51o 51i 51o 1i 2o 2i 1o 1i 2o 52i 52o 2i 1o 51i 51o 1i 2o 2i 1o 1i 2o 2i 1o 51i 51o 1i 2o 2i 1o 1i 2o 52i 52o 52i 52o 52i 52o 2i 1o 51i 51o 1i 2o 52i 52o 2i 1o 51i 51o 1i 2o 52i 52o 2i 1o 51i 51o 1i 2o 2i 1o 1i 2o 2i 1o 51i 51o 51i 51o 51i 51o 1i 2o 52i 52o 2i 1o 1i 2o 52i 52o 52i 52o 52i 52o"/>
    </vehicle>
    <vehicle id="1045.0" depart="0.00">
        <route edges="2o 52i 52o 2i 1o 1i 2o 52i 52o 2i 1o 51i 51o 51i 51o 51i 51o 51i 51o 51i 51o 1i 2o 52i 52o 2i 1o 51i 51o 1i 2o 52i 52o 2i 1o 51i 51o 1i 2o 52i 52o 52i 52o 52i 52o 2i 1o 51i 51o 51i 51o 1i 2o 2i 1o 51i 51o 51i 51o 51i 51o 1i 2o 2i 1o 51i 51o 51i 51o 51i 51o 1i 2o 52i 52o 2i 1o 1i 2o 52i 52o 52i 52o 52i 52o 52i 52o 52i 52o 52i 52o 2i 1o 51i 51o 1i"/>
    </vehicle>
    <vehicle id="1046.0" depart="0.00">
        <route edges="4o 54i 54o 54i 54o 4i 3o 3i 4o 4i 3o 53i 53o 53i 53o 53i 53o 53i 53o 53i 53o 3i 4o 4i 3o 53i 53o 3i 4o 4i 3o 53i 53o 53i 53o 3i 4o 4i 3o 53i 53o 53i 53o 3i 4o 4i 3o 3i 4o 4i 3o 3i 4o 4i 3o 53i 53o 3i 4o 4i 3o 3i 4o 54i 54o 4i 3o 53i 53o 3i 4o 4i 3o 3i 4o 54i 54o 54i 54o 54i 54o 4i 3o 3i 4o 4i 3o 3i 4o 54i 54o 4i 3o 3i 4o 54i"/>
    </vehicle>
    <vehicle id="1047.0" depart="0.00">
        <route edges="4o 54i 54o 54i 54o 4i 3o 53i 53o 3i 4o 54i 54o 4i 3o 3i 4o 54i 54o 4i 3o 3i 4o 4i 3o 3i 4o 54i 54o 4i 3o 53i 53o 53i 53o 53i 53o 3i 4o 54i 54o 4i 3o 3i 4o 54i 54o 4i 3o 53i 53o 53i 53o 3i 4o 54i 54o 4i 3o 3i 4o 54i 54o 4i 3o 3i 4o 54i 54o 54i 54o 54i 54o 54i 54o 4i 3o 3i 4o 4i 3o 53i 53o 3i 4o 54i 54o 54i 54o 54i 54o 54i 54o 4i 3o 3i"/>
    </vehicle>
    <vehicle id="1048.0" depart="0.00">
        <route edges="1i 2o 52i 52o 2i 1o 1i 2o 52i 52o 2i 1o 1i 2o 52i 52o 52i 52o 2i 1o 1i 2o 2i 1o 51i 51o 1i 2o 2i 1o 1i 2o 52i 52o 2i 1o 1i 2o 2i 1o 1i 2o 2i 1o 51i 51o 1i 2o 2i 1o 1i 2o 2i 1o 51i 51o 51i 51o 1i 2o 2i 1o 51i 51o 1i 2o 52i 52o 2i 1o 51i 51o 51i 51o 1i 2o 52i 52o 52i 52o 2i 1o 51i 51o 1i 2o 52i 52o 2i 1o 51i 51o 1i 2o 52i 52o"/>
    </vehicle>
    <vehicle id="1049.0" depart="0.00">
        <route edges="53o 3i 4o 54i 54o 54i 54o 54i 54o 4i 3o 3i 4o 54i 54o 54i 54o 4i 3o 53i 53o 53i 53o 3i 4o 4i 3o 53i 53o 53i 53o 53i 53o 53i 53o 3i 4o 54i 54o 4i 3o 53i 53o 3i 4o 4i 3o 53i 53o 53i 53o 53i 53o 3i 4o 4i 3o 3i 4o 54i 54o 54i 54o 54i 54o 54i 54o 54i 54o 54i 54o 4i 3o 3i 4o 4i 3o 53i 53o 3i 4o 4i 3o 53i 53o 53i 53o 53i 53o 53i 53o 3i 4o 54i 54o 4i"/>
    </vehicle>
    <vehicle id="105.0" depart="0.00">
        <route edges="3o 3i 4o 54i 54o 4i 3o 3i 4o 4i 3o 3i 4o 54i 54o 4i 3o 3i 4o 54i 54o 4i 3o 3i 4o 54i 54o 54i 54o 54i 54o 54i 54o 4i 3o 53i 53o 53i 53o 53i 53o 53i 53o 3i 4o 4i 3o 53i 53o 53i 53o 53i 53o 53i 53o 53i 53o 53i 53o 3i 4o 54i 54o 4i 3o 3i 4o 4i 3o 3i 4o 54i 54o 54i 54o 4i 3o 3i 4o 4i 3o 53i 53o 53i 53o 53i 53o 3i 4o 4i 3o 3i 4o 4i 3o 3i"/>
    </vehicle>
    <vehicle id="1050.0" depart="0.00">
        <route edges="53o 3i 4o 4i 3o 53i 53o 53i 53o 3i 4o 4i 3o 53i 53o 3i 4o 4i 3o 53i 53o 3i 4o 54i 54o 4i 3o 53i 53o 53i 53o 53i 53o 3i 4o 54i 54o 4i 3o 3i 4o 4i 3o 53i 53o 3i 4o 4i 3o 53i 53o 3i 4o 54i 54o 54i 54o 4i 3o 3i 4o 4i 3o 53i 53o 53i 53o 53i 53o 53i 53o 53i 53o 53i 53o 53i 53o 53i 53o 3i 4o 54i 54o 54i 54o 4i 3o 3i 4o 4i 3o 53i 53o 3i 4o 4i"/>
    </vehicle>
    <vehicle id="1051.0" depart="0.00">
        <route edges="54o 54i 54o 54i 54o 4i 3o 53i 53o 3i 4o 4i 3o 3i 4o 54i 54o 4i 3o 53i 53o 53i 53o 3i 4o 4i 3o 53i 53o 3i 4o 54i 54o 4i 3o 3i 4o 4i 3o 3i 4o 54i 54o 54i 54o 4i 3o 3i 4o 4i 3o 53i 53o 3i 4o 54i 54o 4i 3o 3i 4o 4i 3o 3i 4o 54i 54o 4i 3o 53i 53o 53i 53o 3i 4o 4i 3o 53i 53o 3i 4o 54i 54o 54i 54o 4i 3o 3i 4o 4i 3o 3i 4o 4i 3o 3i"/>
    </vehicle>
    <vehicle id="1052.0" depart="0.00">
        <route edges="4o 4i 3o 3i 4o 4i 3o 53i 53o 53i 53o 3i 4o 4i 3o 53i 53o 3i 4o 4i 3o 53i 53o 53i 53o 3i 4o 4i 3o 53i 53o 53i 53o 53i 53o 3i 4o 4i 3o 3i 4o 4i 3o 3i 4o 54i 54o 54i 54o 4i 3o 3i 4o 4i 3o 3i 4o 54i 54o 4i 3o 53i 53o 3i 4o 54i 54o 4i 3o 3i 4o 54i 54o 54i 54o 54i 54o 54i 54o 4i 3o 53i 53o 53i 53o 3i 4o 54i 54o 4i 3o 53i 53o 3i 4o 4i"/>
    </vehicle>
    <vehicle id="1053.0" depart="0.00">
        <route edges="54o 4i 3o 53i 53o 3i 4o 4i 3o 53i 53o 3i 4o 4i 3o 53i 53o 3i 4o 4i 3o 3i 4o 4i 3o 53i 53o 53i 53o 53i 53o 3i 4o 4i 3o 3i 4o 54i 54o 54i 54o 4i 3o 53i 53o 3i 4o 54i 54o 54i 54o 54i 54o 54i 54o 4i 3o 3i 4o 54i 54o 4i 3o 53i 53o 3i 4o 4i 3o 3i 4o 4i 3o 3i 4o 54i 54o 4i 3o 53i 53o 3i 4o 4i 3o 53i 53o 53i 53o 53i 53o 3i 4o 54i 54o 54i"/>
    </vehicle>
    <vehicle id="1054.0" depart="0.00">
        <route edges="1o 1i 2o 2i 1o 1i 2o 2i 1o 1i 2o 2i 1o 51i 51o 51i 51o 1i 2o 2i 1o 1i 2o 2i 1o 1i 2o 52i 52o 2i 1o 51i 51o 51i 51o 51i 51o 1i 2o 52i 52o 52i 52o 2i 1o 1i 2o 2i 1o 1i 2o 2i 1o 1i 2o 2i 1o 1i 2o 2i 1o 1i 2o 2i 1o 1i 2o 52i 52o 52i 52o 2i 1o 1i 2o 2i 1o 1i 2o 2i 1o 51i 51o 1i 2o 52i 52o 52i 52o 2i 1o 1i 2o 2i 1o 51i"/>
    </vehicle>
    <vehicle id="1055.0" depart="0.00">
        <route edges="1i 2o 52i 52o 52i 52o 52i 52o 52i 52o 2i 1o 51i 51o 1i 2o 2i 1o 1i 2o 2i 1o 1i 2o 2i 1o 51i 51o 1i 2o 2i 1o 1i 2o 52i 52o 2i 1o 51i 51o 1i 2o 2i 1o 51i 51o 51i 51o 1i 2o 2i 1o 51i 51o 51i 51o 1i 2o 2i 1o 51i 51o 51i 51o 51i 51o 51i 51o 51i 51o 51i 51o 1i 2o 2i 1o 1i 2o 2i 1o 51i 51o 1i 2o 52i 52o 2i 1o 1i 2o 2i 1o 51i 51o 1i 2o"/>
    </vehicle>
    <vehicle id="1056.0" depart="0.00">
        <route edges="52o 2i 1o 1i 2o 52i 52o 52i 52o 52i 52o 52i 52o 2i 1o 51i 51o 1i 2o 2i 1o 51i 51o 1i 2o 2i 1o 1i 2o 2i 1o 1i 2o 2i 1o 51i 51o 1i 2o 52i 52o 52i 52o 2i 1o 51i 51o 1i 2o 52i 52o 2i 1o 51i 51o 1i 2o 2i 1o 1i 2o 2i 1o 51i 51o 51i 51o 1i 2o 2i 1o 1i 2o 52i 52o 52i 52o 2i 1o 51i 51o 1i 2o 2i 1o 1i 2o 2i 1o 51i 51o 1i 2o 52i 52o 2i"/>
    </vehicle>
    <vehicle id="1057.0" depart="0.00">
        <route edges="4o 4i 3o 3i 4o 4i 3o 53i 53o 53i 53o 53i 53o 3i 4o 4i 3o 53i 53o 3i 4o 54i 54o 4i 3o 3i 4o 4i 3o 3i 4o 4i 3o 53i 53o 3i 4o 4i 3o 3i 4o 4i 3o 53i 53o 53i 53o 53i 53o 3i 4o 54i 54o 54i 54o 4i 3o 53i 53o 3i 4o 4i 3o 3i 4o 54i 54o 54i 54o 54i 54o 54i 54o 54i 54o 54i 54o 54i 54o 54i 54o 4i 3o 3i 4o 4i 3o 3i 4o 4i 3o 53i 53o 53i 53o 53i"/>
    </vehicle>
    <vehicle id="1058.0" depart="0.00">
        <route edges="52o 2i 1o 1i 2o 52i 52o 2i 1o 51i 51o 1i 2o 2i 1o 1i 2o 2i 1o 51i 51o 51i 51o 1i 2o 52i 52o 52i 52o 2i 1o 51i 51o 51i 51o 1i 2o 2i 1o 51i 51o 51i 51o 51i 51o 51i 51o 51i 51o 1i 2o 2i 1o 51i 51o 1i 2o 52i 52o 52i 52o 52i 52o 52i 52o 2i 1o 1i 2o 52i 52o 2i 1o 51i 51o 1i 2o 52i 52o 52i 52o 52i 52o 2i 1o 51i 51o 51i 51o 51i 51o 1i 2o 2i 1o 51i"/>
    </vehicle>
    <vehicle id="1059.0" depart="0.00">
        <route edges="4i 3o 53i 53o 53i 53o 53i 53o 53i 53o 3i 4o 54i 54o 54i 54o 4i 3o 53i 53o 53i 53o 53i 53o 3i 4o 54i 54o 54i 54o 54i 54o 4i 3o 53i 53o 53i 53o 53i 53o 53i 53o 53i 53o 53i 53o 53i 53o 3i 4o 54i 54o 4i 3o 3i 4o 54i 54o 54i 54o 4i 3o 53i 53o 3i 4o 4i 3o 3i 4o 4i 3o 53i 53o 53i 53o 53i 53o 53i 53o 53i 53o 3i 4o 54i 54o 4i 3o 53i 53o 3i 4o 54i 54o 54i 54o"/>
    </vehicle>
    <vehicle id="106.0" depart="0.00">
        <route edges="3i 4o 54i 54o 54i 54o 4i 3o 53i 53o 53i 53o 3i 4o 4i 3o 3i 4o 4i 3o 53i 53o 53i 53o 3i 4o 54i 54o 4i 3o 3i 4o 54i 54o 54i 54o 54i 54o 4i 3o 53i 53o 53i 53o 53i 53o 3i 4o 54i 54o 4i 3o 3i 4o 4i 3o 53i 53o 53i 53o 53i 53o 53i 53o 53i 53o 3i 4o 4i 3o 3i 4o 54i 54o 54i 54o 54i 54o 54i 54o 4i 3o 3i 4o 4i 3o 53i 53o 53i 53o 53i 53o 3i 4o 54i 54o"/>
    </vehicle>
    <vehicle id="1060.0" depart="0.00">