<?xml version="1.0" encoding="UTF-8"?>

<!-- generated on 01/02/21 18:09:05 by Eclipse SUMO netedit Version 1.8.0
<configuration xmlns:xsi="http://www.w3.org/2001/XMLSchema-instance" xsi:noNamespaceSchemaLocation="http://sumo.dlr.de/xsd/netconvertConfiguration.xsd">

    <input>
        <sumo-net-file value="C:\Users\roger\git\sumo-control\simulations\crossing\crossing.net.xml"/>
    </input>

    <output>
        <output-file value="C:\Users\roger\git\sumo-control\simulations\crossing\crossing.net.xml"/>
    </output>

    <processing>
        <geometry.min-radius.fix.railways value="false"/>
        <geometry.max-grade.fix value="false"/>
        <offset.disable-normalization value="true"/>
        <lefthand value="false"/>
    </processing>

    <junctions>
        <no-turnarounds value="true"/>
        <junctions.corner-detail value="5"/>
        <junctions.limit-turn-speed value="5.5"/>
        <rectangular-lane-cut value="false"/>
    </junctions>

    <pedestrian>
        <walkingareas value="false"/>
    </pedestrian>

    <netedit>
        <route-files value="C:\Users\roger\git\sumo-control\simulations\crossing\crossing.rou.xml"/>
    </netedit>

    <report>
        <aggregate-warnings value="5"/>
    </report>

</configuration>
-->

<routes xmlns:xsi="http://www.w3.org/2001/XMLSchema-instance" xsi:noNamespaceSchemaLocation="http://sumo.dlr.de/xsd/routes_file.xsd">
    <route edges="W_C1 C1_C2 C2_E" color="yellow" id="route_0"/>
    <route edges="N1_C1 C1_S1" color="yellow" id="route_1"/>
    <route edges="E_C2 C2_C1 C1_W" color="yellow" id="route_2"/>
    <route edges="S1_C1 C1_N1" color="yellow" id="route_3"/>
    <route edges="N2_C2 C2_S2" color="yellow" id="route_4"/>
    <route edges="S2_C2 C2_N2" color="yellow" id="route_5"/>
    <!-- Inicia com fluxo leve -->
    <flow id="routeFlow_0_0" begin="0.00" route="route_0" end="600.00" vehsPerHour="1000.00"/>
    <flow id="routeFlow_1_0" begin="0.00" route="route_1" end="600.00" vehsPerHour="1000.00"/>
    <flow id="routeFlow_2_0" begin="0.00" route="route_2" end="600.00" vehsPerHour="1000.00"/>
    <flow id="routeFlow_3_0" begin="0.00" route="route_3" end="600.00" vehsPerHour="1000.00"/>
    <flow id="routeFlow_4_0" begin="0.00" route="route_4" end="600.00" vehsPerHour="1000.00"/>
    <flow id="routeFlow_5_0" begin="0.00" route="route_5" end="600.00" vehsPerHour="1000.00"/>
    <!-- 0 - 10 min: fluxo intenso sentido W -> E -->
    <flow id="routeFlow_0_1" begin="600.00" route="route_0" end="1200.00" vehsPerHour="2000.00"/>
    <flow id="routeFlow_1_1" begin="600.00" route="route_1" end="1200.00" vehsPerHour="1000.00"/>
    <flow id="routeFlow_2_1" begin="600.00" route="route_2" end="1200.00" vehsPerHour="1000.00"/>
    <flow id="routeFlow_3_1" begin="600.00" route="route_3" end="1200.00" vehsPerHour="1000.00"/>
    <flow id="routeFlow_4_1" begin="600.00" route="route_4" end="1200.00" vehsPerHour="1000.00"/>
    <flow id="routeFlow_5_1" begin="600.00" route="route_5" end="1200.00" vehsPerHour="1000.00"/>
    <!-- 10 - 20 min: fluxo intenso sentido N -> S -->
    <flow id="routeFlow_0_2" begin="1200.00" route="route_0" end="1800.00" vehsPerHour="1000.00"/>
    <flow id="routeFlow_1_2" begin="1200.00" route="route_1" end="1800.00" vehsPerHour="2000.00"/>
    <flow id="routeFlow_2_2" begin="1200.00" route="route_2" end="1800.00" vehsPerHour="1000.00"/>
    <flow id="routeFlow_3_2" begin="1200.00" route="route_3" end="1800.00" vehsPerHour="1000.00"/>
    <flow id="routeFlow_4_2" begin="1200.00" route="route_4" end="1800.00" vehsPerHour="2000.00"/>
    <flow id="routeFlow_5_2" begin="1200.00" route="route_5" end="1800.00" vehsPerHour="1000.00"/>
    <!-- 20 - 30 min: fluxo intenso sentido E -> W -->
    <flow id="routeFlow_0_3" begin="1800.00" route="route_0" end="2400.00" vehsPerHour="1000.00"/>
    <flow id="routeFlow_1_3" begin="1800.00" route="route_1" end="2400.00" vehsPerHour="1000.00"/>
    <flow id="routeFlow_2_3" begin="1800.00" route="route_2" end="2400.00" vehsPerHour="2000.00"/>
    <flow id="routeFlow_3_3" begin="1800.00" route="route_3" end="2400.00" vehsPerHour="1000.00"/>
    <flow id="routeFlow_4_3" begin="1800.00" route="route_4" end="2400.00" vehsPerHour="1000.00"/>
    <flow id="routeFlow_5_3" begin="1800.00" route="route_5" end="2400.00" vehsPerHour="1000.00"/>
    <!-- 30 - 40 min: fluxo intenso sentido S -> N -->
    <flow id="routeFlow_0_4" begin="2400.00" route="route_0" end="3000.00" vehsPerHour="1000.00"/>
    <flow id="routeFlow_1_4" begin="2400.00" route="route_1" end="3000.00" vehsPerHour="1000.00"/>
    <flow id="routeFlow_2_4" begin="2400.00" route="route_2" end="3000.00" vehsPerHour="1000.00"/>
    <flow id="routeFlow_3_4" begin="2400.00" route="route_3" end="3000.00" vehsPerHour="2000.00"/>
    <flow id="routeFlow_4_4" begin="2400.00" route="route_4" end="3000.00" vehsPerHour="1000.00"/>
    <flow id="routeFlow_5_4" begin="2400.00" route="route_5" end="3000.00" vehsPerHour="2000.00"/>
    <!-- Termina com fluxo leve -->
    <flow id="routeFlow_0_5" begin="3000.00" route="route_0" end="3600.00" vehsPerHour="1000.00"/>
    <flow id="routeFlow_1_5" begin="3000.00" route="route_1" end="3600.00" vehsPerHour="1000.00"/>
    <flow id="routeFlow_2_5" begin="3000.00" route="route_2" end="3600.00" vehsPerHour="1000.00"/>
    <flow id="routeFlow_3_5" begin="3000.00" route="route_3" end="3600.00" vehsPerHour="1000.00"/>
    <flow id="routeFlow_4_5" begin="3000.00" route="route_4" end="3600.00" vehsPerHour="1000.00"/>
    <flow id="routeFlow_5_5" begin="3000.00" route="route_5" end="3600.00" vehsPerHour="1000.00"/>
</routes>
